#!sh ====================
# | Model parameters |
# ====================
#
# Continuous equation parameters
 &PARM01
 tRef=20.,
 sRef=35.0,
 viscA4=0.,
 viscAh=25.0,
 diffKhT=25.0,
 diffKhS=25.0,
 viscAr=1.E-5,
 diffKrT=1.E-5,
 diffKrS=1.E-5,
 gravity=9.81,
 rhonil=1035.,
 rigidLid=.FALSE.,
 implicitFreeSurface=.TRUE.,
 eosType='MDJWF',
 readBinaryPrec=32,
 exactConserv=.FALSE.,
 hFacMin=0.2,
 nonHydrostatic=.FALSE.,
 tempAdvScheme=33,
 saltAdvScheme=33,
 staggerTimeStep=.TRUE.,
 implicitDiffusion=.TRUE.,
 implicitviscosity=.TRUE.,
 no_slip_sides=.FALSE.,
 no_slip_bottom=.FALSE.,
 debugLevel=1,
 usesinglecpuio=.TRUE.,
 &

# Elliptic solver parameters
 &PARM02
 cg2dMaxIters=1000,
 cg2dTargetResidual=1.E-13,
 &

# Time stepping parameters
 &PARM03
 nIter0  = 0,
 endTime=31536000,
 deltaT = 400.0,
 abEps = 0.1,
 dumpFreq=  864000.,
 monitorFreq= 864000.,
 periodicExternalForcing=.TRUE.,
 externForcingPeriod=86400.0,
 externForcingCycle=31363200,
 &

# Gridding parameters
 &PARM04
 usingSphericalPolarGrid=.TRUE.,
 ygOrigin=-44.0,
 xgOrigin=-66.0,
 delXfile='dx.box',
 delYfile='dy.box',
 delrfile='dz.box',
 &
# Input datasets
 &PARM05
 bathyFile=       'htopo.box',
 uVelInitFile=    'uinit.box', 
 vVelInitFile=    'vinit.box', 
 hydrogThetaFile= 'tinit.box',
 hydrogSaltFile=  'sinit.box',
 pSurfInitFile=   'einit.box',

 &
